/*--------------------------------*- C++ -*----------------------------------*\
  =========                 |
  \\      /  F ield         | OpenFOAM: The Open Source CFD Toolbox
   \\    /   O peration     | Website:  https://openfoam.org
    \\  /    A nd           | Version:  9
     \\/     M anipulation  |
\*---------------------------------------------------------------------------*/
FoamFile
{
    format      ascii;
    class       volScalarField;
    object      epsilon;
}
// * * * * * * * * * * * * * * * * * * * * * * * * * * * * * * * * * * * * * //

epsilonInlet  3; // was 0.03/ Cmu^0.75 * k^1.5 / L ; L =10

dimensions      [0 2 -3 0 0 0 0];

internalField   uniform $epsilonInlet;

boundaryField
{
    inlet
    {
        type            fixedValue;
        value           uniform $epsilonInlet; 
    }

    outlet
    {
        type            zeroGradient;
    }

    ground
    {
        type            epsilonWallFunction;
        value           uniform $epsilonInlet;
    }
    
    frontAndBack
    {
        type            epsilonWallFunction;
        value           uniform $epsilonInlet;
    }
    
    buildings
    {
        type            epsilonWallFunction;
        value           uniform $epsilonInlet;
    }    

    #includeEtc "caseDicts/setConstraintTypes"
}

// ************************************************************************* //
