/*--------------------------------*- C++ -*----------------------------------*\
  =========                 |
  \\      /  F ield         | OpenFOAM: The Open Source CFD Toolbox
   \\    /   O peration     | Website:  https://openfoam.org
    \\  /    A nd           | Version:  9
     \\/     M anipulation  |
\*---------------------------------------------------------------------------*/
FoamFile
{
    format      ascii;
    class       volVectorField;
    object      U;
}
// * * * * * * * * * * * * * * * * * * * * * * * * * * * * * * * * * * * * * //

dimensions      [0 1 -1 0 0 0 0];

internalField   uniform (0 0 0);

boundaryField
{
    inlet
    {
        type            fixedProfile;
        profile         table;
        format          foam;
        file            "0/UProfile.csv";
        direction       (0 0 1);
        origin          0;
    }

    outlet
    {
        type            zeroGradient;
    }

    ground
    {
        type            noSlip;
    }
    
    frontAndBack
    {
        type            slip;
    }

    buildings
    {
        type            noSlip;
    }

    #includeEtc "caseDicts/setConstraintTypes"
}

// ************************************************************************* //
